
     RDKit          3D

 10 10  0  0  0  0  0  0  0  0999 V2000
    2.5473    0.5624    1.0583 C   0  0  0  0  0  0  0  0  0  0  0  0
    2.5737   -0.1314   -0.2748 C   0  0  0  0  0  0  0  0  0  0  0  0
    1.4369    0.2013   -1.1626 C   0  0  0  0  0  0  0  0  0  0  0  0
    0.1113   -0.1186   -0.6036 C   0  0  0  0  0  0  0  0  0  0  0  0
   -0.5337   -1.2671   -1.0003 C   0  0  0  0  0  0  0  0  0  0  0  0
   -1.7733   -1.5531   -0.4406 C   0  0  0  0  0  0  0  0  0  0  0  0
   -2.3795   -0.7370    0.4908 C   0  0  0  0  0  0  0  0  0  0  0  0
   -1.6992    0.4228    0.8741 C   0  0  0  0  0  0  0  0  0  0  0  0
   -0.4558    0.7214    0.3192 C   0  0  0  0  0  0  0  0  0  0  0  0
    0.1725    1.8992    0.7395 O   0  0  0  0  0  0  0  0  0  0  0  0
  1  2  1  0
  2  3  1  0
  3  4  1  0
  4  5  2  0
  5  6  1  0
  6  7  2  0
  7  8  1  0
  8  9  2  0
  9 10  1  0
  9  4  1  0
M  END
